
  Mrv0541 01091216582D

 12 13  0  0  0  0            999 V2000
    0.2663   -0.7508    0.0000 B   0  5  0  0  0  0  0  0  0  0  0  0
    0.9931   -0.3214    0.0000 N   0  3  0  0  0  0  0  0  0  0  0  0
   -0.4509   -0.3430    0.0000 C   0  0  0  0  0  0  0  0  0  0  0  0
   -0.4509    0.4965    0.0000 C   0  0  0  0  0  0  0  0  0  0  0  0
    0.9931    0.4797    0.0000 N   0  0  0  0  0  0  0  0  0  0  0  0
    0.2663    0.9043    0.0000 C   0  0  0  0  0  0  0  0  0  0  0  0
   -1.2425   -0.5853    0.0000 S   0  0  0  0  0  0  0  0  0  0  0  0
   -1.2425    0.7436    0.0000 C   0  0  0  0  0  0  0  0  0  0  0  0
   -1.7151    0.0816    0.0000 C   0  0  0  0  0  0  0  0  0  0  0  0
    0.2663   -1.5735    0.0000 O   0  0  0  0  0  0  0  0  0  0  0  0
    1.7127   -0.7004    0.0000 C   0  0  0  0  0  0  0  0  0  0  0  0
    0.2663    1.7271    0.0000 C   0  0  0  0  0  0  0  0  0  0  0  0
  2  1  2  0  0  0  0
  3  1  1  0  0  0  0
  4  3  2  0  0  0  0
  5  2  1  0  0  0  0
  6  5  2  0  0  0  0
  7  3  1  0  0  0  0
  8  4  1  0  0  0  0
  9  7  1  0  0  0  0
 10  1  1  0  0  0  0
 11  2  1  0  0  0  0
 12  6  1  0  0  0  0
  6  4  1  0  0  0  0
  9  8  2  0  0  0  0
M  CHG  2   1  -1   2   1
M  END
>  <PUBCHEM_EXT_DATASOURCE_REGID>
MolPort-009-014-588

>  <PUBCHEM_EXT_SUBSTANCE_URL>
http://www.molport.com/buy-chemicals/molecule-link/MolPort-009-014-588

>  <PUBCHEM_EXT_DATASOURCE_URL>
http://www.molport.com

$$$$
